/*--------------------------------*- C++ -*----------------------------------*\
  =========                 |
  \\      /  F ield         | OpenFOAM: The Open Source CFD Toolbox
   \\    /   O peration     | Website:  https://openfoam.org
    \\  /    A nd           | Version:  9
     \\/     M anipulation  |
\*---------------------------------------------------------------------------*/
FoamFile
{
    format      binary;
    class       polyBoundaryMesh;
    location    "1/polyMesh";
    object      boundary;
}
// * * * * * * * * * * * * * * * * * * * * * * * * * * * * * * * * * * * * * //

6
(
    frontAndBack
    {
        type            patch;
        nFaces          206;
        startFace       533204;
    }
    inlet
    {
        type            patch;
        nFaces          100;
        startFace       533410;
    }
    outlet
    {
        type            patch;
        nFaces          100;
        startFace       533510;
    }
    lowerWall
    {
        type            wall;
        inGroups        List<word> 1(wall);
        nFaces          100;
        startFace       533610;
    }
    upperWall
    {
        type            patch;
        nFaces          100;
        startFace       533710;
    }
    bluffBody
    {
        type            wall;
        inGroups        List<word> 1(wall);
        nFaces          70696;
        startFace       533810;
    }
)

// ************************************************************************* //
